Circuit: * C:\Users\SWARUP\Desktop\2ND YEAR\2-1\DIGITAL DESIGN\DD LABS\DIGITAL DESIGN LAB SOLUTIONS\lab 1\2019A3PS1323H.asc

WARNING: Less than two connections to node F.  This node is used by R:U5:OUT:OUT.
Direct Newton iteration for .op point succeeded.
Ignoring empty pin current: Ix(u1:vcc)
Ignoring empty pin current: Ix(u2:vcc)
Ignoring empty pin current: Ix(u3:vcc)
Ignoring empty pin current: Ix(u4:vcc)
Ignoring empty pin current: Ix(u5:vcc)
Ignoring empty pin current: Ix(u1:vcc)
Ignoring empty pin current: Ix(u2:vcc)
Ignoring empty pin current: Ix(u3:vcc)
Ignoring empty pin current: Ix(u4:vcc)
Ignoring empty pin current: Ix(u5:vcc)

Date: Sat Oct 10 20:13:31 2020
Total elapsed time: 0.063 seconds.

tnom = 27
temp = 27
method = modified trap
totiter = 4589
traniter = 4576
tranpoints = 2118
accept = 1920
rejected = 198
matrix size = 71
fillins = 3
solver = Normal
Thread vector: 3.1/2.7[2] 0.9/1.2[1] 0.8/1.0[1] 0.1/0.9[1]  2592/500
Matrix Compiler1: 1.93 KB object code size  0.4/0.3/[0.1]
Matrix Compiler2: 3.70 KB object code size  0.2/0.5/[0.2]

