Circuit: * C:\Users\SWARUP\Desktop\2-1\DD\DIGITAL DESIGN\lab 1\2019A3PS1323_2ND.asc

WARNING: Less than two connections to node F.  This node is used by R:U2:OUT:OUT.
WARNING: Less than two connections to node F1.  This node is used by R:U8:OUT:OUT.
Direct Newton iteration for .op point succeeded.
Ignoring empty pin current: Ix(u1:vcc)
Ignoring empty pin current: Ix(u2:vcc)
Ignoring empty pin current: Ix(u3:vcc)
Ignoring empty pin current: Ix(u4:vcc)
Ignoring empty pin current: Ix(u5:vcc)
Ignoring empty pin current: Ix(u6:vcc)
Ignoring empty pin current: Ix(u7:vcc)
Ignoring empty pin current: Ix(u8:vcc)
Ignoring empty pin current: Ix(u10:vcc)
Ignoring empty pin current: Ix(u11:vcc)
Ignoring empty pin current: Ix(u12:vcc)
Ignoring empty pin current: Ix(u9:vcc)
Ignoring empty pin current: Ix(u1:vcc)
Ignoring empty pin current: Ix(u2:vcc)
Ignoring empty pin current: Ix(u3:vcc)
Ignoring empty pin current: Ix(u4:vcc)
Ignoring empty pin current: Ix(u5:vcc)
Ignoring empty pin current: Ix(u6:vcc)
Ignoring empty pin current: Ix(u7:vcc)
Ignoring empty pin current: Ix(u8:vcc)
Ignoring empty pin current: Ix(u10:vcc)
Ignoring empty pin current: Ix(u11:vcc)
Ignoring empty pin current: Ix(u12:vcc)
Ignoring empty pin current: Ix(u9:vcc)

Date: Tue Aug 25 09:00:07 2020
Total elapsed time: 0.202 seconds.

tnom = 27
temp = 27
method = modified trap
totiter = 5079
traniter = 5064
tranpoints = 2313
accept = 2057
rejected = 256
matrix size = 158
fillins = 10
solver = Normal
Thread vector: 11.1/8.9[3] 2.4/5.6[1] 3.2/6.0[1] 0.3/1.4[1]  2592/500
Matrix Compiler1: 4.31 KB object code size  3.1/1.6/[0.3]
Matrix Compiler2: 8.35 KB object code size  2.2/2.0/[0.5]

