Circuit: * C:\Users\SWARUP\Desktop\2-1\DD\DIGITAL DESIGN\lab 1\Draft1.asc

WARNING: Less than two connections to node F.  This node is used by R:U5:OUT:OUT.
WARNING: Less than two connections to node F1.  This node is used by R:U9:OUT:OUT.
Direct Newton iteration for .op point succeeded.
Ignoring empty pin current: Ix(u1:vcc)
Ignoring empty pin current: Ix(u2:vcc)
Ignoring empty pin current: Ix(u3:vcc)
Ignoring empty pin current: Ix(u4:vcc)
Ignoring empty pin current: Ix(u5:vcc)
Ignoring empty pin current: Ix(u6:vcc)
Ignoring empty pin current: Ix(u7:vcc)
Ignoring empty pin current: Ix(u8:vcc)
Ignoring empty pin current: Ix(u9:vcc)
Ignoring empty pin current: Ix(u1:vcc)
Ignoring empty pin current: Ix(u2:vcc)
Ignoring empty pin current: Ix(u3:vcc)
Ignoring empty pin current: Ix(u4:vcc)
Ignoring empty pin current: Ix(u5:vcc)
Ignoring empty pin current: Ix(u6:vcc)
Ignoring empty pin current: Ix(u7:vcc)
Ignoring empty pin current: Ix(u8:vcc)
Ignoring empty pin current: Ix(u9:vcc)

Date: Mon Aug 24 21:15:27 2020
Total elapsed time: 0.354 seconds.

tnom = 27
temp = 27
method = modified trap
totiter = 4818
traniter = 4805
tranpoints = 2231
accept = 2000
rejected = 231
matrix size = 127
fillins = 6
solver = Normal
Thread vector: 9.5/7.5[3] 2.5/3.2[1] 2.6/2.9[1] 0.3/1.6[1]  2592/500
Matrix Compiler1: 3.50 KB object code size  0.8/0.7/[0.3]
Matrix Compiler2: 6.65 KB object code size  0.6/1.4/[0.4]

