Circuit: * C:\Users\SWARUP\Desktop\2ND YEAR\2-1\DIGITAL DESIGN\DD LABS\DIGITAL DESIGN LAB SOLUTIONS\lab 7\Draft3.asc

Direct Newton iteration for .op point succeeded.

Date: Fri Jan 01 10:27:00 2021
Total elapsed time: 0.037 seconds.

tnom = 27
temp = 27
method = trap
totiter = 3
traniter = 0
tranpoints = 0
accept = 0
rejected = 0
matrix size = 5
fillins = 1
solver = Normal
Matrix Compiler1: 150 bytes object code size
Matrix Compiler2: 321 bytes object code size
