Circuit: * C:\Users\SWARUP\Desktop\2ND YEAR\2-1\DIGITAL DESIGN\DD LABS\DIGITAL DESIGN LAB SOLUTIONS\lab 7\Draft2.asc

WARNING: Less than two connections to node NC_01.  This node is used by R:U1:OUT2:OUT.
WARNING: Less than two connections to node NC_02.  This node is used by R:U2:OUT2:OUT.
WARNING: Less than two connections to node C3.  This node is used by R:U3:OUT1:OUT.
WARNING: Less than two connections to node NC_03.  This node is used by R:U3:OUT2:OUT.
Direct Newton iteration for .op point succeeded.
Ignoring empty pin current: Ix(u1:vcc)
Ignoring empty pin current: Ix(u2:vcc)
Ignoring empty pin current: Ix(u3:vcc)
Ignoring empty pin current: Ix(u4:vcc)
Ignoring empty pin current: Ix(u1:vcc)
Ignoring empty pin current: Ix(u2:vcc)
Ignoring empty pin current: Ix(u3:vcc)
Ignoring empty pin current: Ix(u4:vcc)

Date: Tue Nov 24 12:29:09 2020
Total elapsed time: 0.149 seconds.

tnom = 27
temp = 27
method = modified trap
totiter = 4140
traniter = 4133
tranpoints = 1940
accept = 1777
rejected = 163
matrix size = 119
fillins = 0
solver = Normal
Thread vector: 5.4/3.0[4] 1.4/2.8[1] 1.2/2.5[1] 0.2/1.3[1]  2592/500
Matrix Compiler1: 2.90 KB object code size  3.0/0.3/[0.2]
Matrix Compiler2: 5.82 KB object code size  0.7/0.8/[0.2]

