Circuit: * C:\Users\SWARUP\Desktop\2ND YEAR\2-1\DIGITAL DESIGN\DD LABS\DIGITAL DESIGN LAB SOLUTIONS\lab 7\Draft1.asc

WARNING: Less than two connections to node SUM.  This node is used by R:U6:OUT:OUT.
WARNING: Less than two connections to node CIN.  This node is used by V4.
WARNING: Less than two connections to node U1:DP.  This node is used by A:U1:DDEL.
WARNING: Less than two connections to node NC_02.  This node is used by R:U1:OUT2:OUT.
Direct Newton iteration for .op point succeeded.
Ignoring empty pin current: Ix(u5:vcc)
Ignoring empty pin current: Ix(u6:vcc)
Ignoring empty pin current: Ix(u7:vcc)
Ignoring empty pin current: Ix(u8:vcc)
Ignoring empty pin current: Ix(u9:vcc)
Ignoring empty pin current: Ix(u1:vcc)
Ignoring empty pin current: Ix(u5:vcc)
Ignoring empty pin current: Ix(u6:vcc)
Ignoring empty pin current: Ix(u7:vcc)
Ignoring empty pin current: Ix(u8:vcc)
Ignoring empty pin current: Ix(u9:vcc)
Ignoring empty pin current: Ix(u1:vcc)

Date: Sat Oct 17 07:19:13 2020
Total elapsed time: 0.095 seconds.

tnom = 27
temp = 27
method = modified trap
totiter = 6859
traniter = 6845
tranpoints = 3135
accept = 2731
rejected = 404
matrix size = 105
fillins = 1
solver = Normal
Thread vector: 5.0/3.2[3] 1.3/1.6[1] 1.2/1.5[1] 0.2/1.0[1]  2592/500
Matrix Compiler1: 2.80 KB object code size  0.5/0.3/[0.2]
Matrix Compiler2: 5.33 KB object code size  0.3/0.7/[0.3]

