Circuit: * C:\Users\SWARUP\Desktop\2ND YEAR\2-1\DIGITAL DESIGN\DD LABS\DIGITAL DESIGN LAB SOLUTIONS\lab 7\Draft5.asc

WARNING: Less than two connections to node SUM.  This node is used by R:U1:OUT1:OUT.
WARNING: Less than two connections to node SUM_BAR.  This node is used by R:U1:OUT2:OUT.
WARNING: Less than two connections to node CARRY.  This node is used by R:U2:OUT1:OUT.
WARNING: Less than two connections to node CARRY_BAR.  This node is used by R:U2:OUT2:OUT.
Direct Newton iteration for .op point succeeded.
Ignoring empty pin current: Ix(u1:vcc)
Ignoring empty pin current: Ix(u2:vcc)
Ignoring empty pin current: Ix(u1:vcc)
Ignoring empty pin current: Ix(u2:vcc)

Date: Sat Oct 10 20:10:52 2020
Total elapsed time: 0.179 seconds.

tnom = 27
temp = 27
method = modified trap
totiter = 4329
traniter = 4318
tranpoints = 2027
accept = 1859
rejected = 168
matrix size = 174
fillins = 0
solver = Normal
Thread vector: 24.4/6.7[7] 5.9/3.3[7] 6.5/2.7[7] 0.2/1.4[1]  2592/500
Matrix Compiler1: 3.83 KB object code size  2.5/3.8/[0.4]
Matrix Compiler2: 8.04 KB object code size  2.0/3.1/[0.3]

