Circuit: * C:\Users\SWARUP\Desktop\2ND YEAR\2-1\DIGITAL DESIGN\DD LABS\DIGITAL DESIGN LAB SOLUTIONS\lab 7\FullAdder.asc

WARNING: Less than two connections to node N001.  This node is used by R:U1:OUT1:OUT.
WARNING: Less than two connections to node CARRY.  This node is used by R:U4:OUT:OUT.
WARNING: Less than two connections to node SUM.  This node is used by R:U7:OUT:OUT.
WARNING: Less than two connections to node N002.  This node is used by R:U8:OUT1:OUT.
WARNING: Less than two connections to node SUM1.  This node is used by R:U15:OUT:OUT.
WARNING: Less than two connections to node CARRY1.  This node is used by R:U16:OUT:OUT.
Direct Newton iteration for .op point succeeded.
Ignoring empty pin current: Ix(u1:vcc)
Ignoring empty pin current: Ix(u2:vcc)
Ignoring empty pin current: Ix(u3:vcc)
Ignoring empty pin current: Ix(u5:vcc)
Ignoring empty pin current: Ix(u6:vcc)
Ignoring empty pin current: Ix(u4:vcc)
Ignoring empty pin current: Ix(u7:vcc)
Ignoring empty pin current: Ix(u8:vcc)
Ignoring empty pin current: Ix(u9:vcc)
Ignoring empty pin current: Ix(u10:vcc)
Ignoring empty pin current: Ix(u11:vcc)
Ignoring empty pin current: Ix(u12:vcc)
Ignoring empty pin current: Ix(u13:vcc)
Ignoring empty pin current: Ix(u14:vcc)
Ignoring empty pin current: Ix(u15:vcc)
Ignoring empty pin current: Ix(u16:vcc)
Ignoring empty pin current: Ix(u1:vcc)
Ignoring empty pin current: Ix(u2:vcc)
Ignoring empty pin current: Ix(u3:vcc)
Ignoring empty pin current: Ix(u5:vcc)
Ignoring empty pin current: Ix(u6:vcc)
Ignoring empty pin current: Ix(u4:vcc)
Ignoring empty pin current: Ix(u7:vcc)
Ignoring empty pin current: Ix(u8:vcc)
Ignoring empty pin current: Ix(u9:vcc)
Ignoring empty pin current: Ix(u10:vcc)
Ignoring empty pin current: Ix(u11:vcc)
Ignoring empty pin current: Ix(u12:vcc)
Ignoring empty pin current: Ix(u13:vcc)
Ignoring empty pin current: Ix(u14:vcc)
Ignoring empty pin current: Ix(u15:vcc)
Ignoring empty pin current: Ix(u16:vcc)

Date: Tue Oct 13 10:05:38 2020
Total elapsed time: 0.465 seconds.

tnom = 27
temp = 27
method = modified trap
totiter = 6593
traniter = 6575
tranpoints = 2883
accept = 2468
rejected = 415
matrix size = 324
fillins = 20
solver = Normal
Thread vector: 22.2/14.7[8] 9.5/4.4[8] 7.7/4.6[8] 0.8/3.5[1]  2592/500
Matrix Compiler1: 8.30 KB object code size  5.0/2.2/[0.9]
Matrix Compiler2: 16.85 KB object code size  3.2/5.6/[2.0]

