Circuit: * C:\Users\SWARUP\Desktop\2ND YEAR\2-1\DIGITAL DESIGN\DD LABS\DIGITAL DESIGN LAB SOLUTIONS\lab 7\MajorityCircuit_Mux.asc

WARNING: Less than two connections to node F.  This node is used by R:U2:OUT1:OUT.
WARNING: Less than two connections to node F_BAR.  This node is used by R:U2:OUT2:OUT.
Direct Newton iteration for .op point succeeded.
Ignoring empty pin current: Ix(u2:vcc)
Ignoring empty pin current: Ix(u2:vcc)

Date: Tue Oct 13 10:05:49 2020
Total elapsed time: 0.102 seconds.

tnom = 27
temp = 27
method = modified trap
totiter = 4175
traniter = 4164
tranpoints = 1975
accept = 1813
rejected = 162
matrix size = 90
fillins = 0
solver = Normal
Thread vector: 5.1/3.6[3] 1.2/1.3[1] 1.1/1.3[1] 0.1/1.3[1]  2592/500
Matrix Compiler1: 1.98 KB object code size  0.4/0.3/[0.2]
Matrix Compiler2: 4.16 KB object code size  0.3/0.6/[0.2]

