Circuit: * C:\Users\SWARUP\Desktop\2ND YEAR\2-1\DIGITAL DESIGN\DD LABS\DIGITAL DESIGN LAB SOLUTIONS\lab 7\MajorityCircuit.asc

WARNING: Less than two connections to node NC_01.  This node is used by R:U1:OUT1:OUT.
WARNING: Less than two connections to node NC_02.  This node is used by R:U1:OUT2:OUT.
WARNING: Less than two connections to node NC_03.  This node is used by R:U1:OUT3:OUT.
WARNING: Less than two connections to node NC_04.  This node is used by R:U1:OUT5:OUT.
WARNING: Less than two connections to node F.  This node is used by R:U6:OUT:OUT.
Direct Newton iteration for .op point succeeded.
Ignoring empty pin current: Ix(u1:vcc)
Ignoring empty pin current: Ix(u4:vcc)
Ignoring empty pin current: Ix(u5:vcc)
Ignoring empty pin current: Ix(u6:vcc)
Ignoring empty pin current: Ix(u1:vcc)
Ignoring empty pin current: Ix(u4:vcc)
Ignoring empty pin current: Ix(u5:vcc)
Ignoring empty pin current: Ix(u6:vcc)

Date: Tue Oct 13 10:05:46 2020
Total elapsed time: 0.136 seconds.

tnom = 27
temp = 27
method = modified trap
totiter = 4851
traniter = 4835
tranpoints = 2235
accept = 1993
rejected = 242
matrix size = 117
fillins = 6
solver = Normal
Thread vector: 13.1/3.9[4] 3.4/2.2[4] 2.6/2.1[4] 0.2/1.3[1]  2592/500
Matrix Compiler1: 3.00 KB object code size  1.8/1.2/[0.2]
Matrix Compiler2: 5.94 KB object code size  1.3/2.3/[0.3]

