Circuit: * C:\Users\SWARUP\Desktop\2ND YEAR\2-1\DIGITAL DESIGN\DD LABS\DIGITAL DESIGN LAB SOLUTIONS\lab 7\one.asc

WARNING: Less than two connections to node N001.  This node is used by R:U1:OUT1:OUT.
WARNING: Less than two connections to node N002.  This node is used by R:U1:OUT2:OUT.
WARNING: Less than two connections to node N003.  This node is used by R:U1:OUT3:OUT.
WARNING: Less than two connections to node N004.  This node is used by R:U1:OUT4:OUT.
WARNING: Less than two connections to node N005.  This node is used by R:U1:OUT5:OUT.
WARNING: Less than two connections to node N006.  This node is used by R:U1:OUT6:OUT.
WARNING: Less than two connections to node N007.  This node is used by R:U1:OUT7:OUT.
WARNING: Less than two connections to node N008.  This node is used by R:U1:OUT8:OUT.
Direct Newton iteration for .op point succeeded.
Ignoring empty pin current: Ix(u1:vcc)
Ignoring empty pin current: Ix(u1:vcc)

Date: Sat Oct 10 19:30:05 2020
Total elapsed time: 0.100 seconds.

tnom = 27
temp = 27
method = modified trap
totiter = 4178
traniter = 4169
tranpoints = 1999
accept = 1839
rejected = 160
matrix size = 78
fillins = 0
solver = Normal
Matrix Compiler1: 1.97 KB object code size  0.4/0.2/[0.2]
Matrix Compiler2: off  [0.2]/0.6/0.3

