Circuit: * C:\Users\SWARUP\Desktop\2ND YEAR\2-1\DIGITAL DESIGN\DD LABS\DIGITAL DESIGN LAB SOLUTIONS\lab 3\2019A3PS1323H_4_bit_adder.asc

WARNING: Less than two connections to node S1.  This node is used by R:U1:OUT1:OUT.
WARNING: Less than two connections to node S2.  This node is used by R:U1:OUT2:OUT.
WARNING: Less than two connections to node S3.  This node is used by R:U1:OUT3:OUT.
WARNING: Less than two connections to node S4.  This node is used by R:U1:OUT4:OUT.
WARNING: Less than two connections to node CARRY.  This node is used by R:U1:OUT5:OUT.
Direct Newton iteration for .op point succeeded.
Ignoring empty pin current: Ix(u1:vcc)
Ignoring empty pin current: Ix(u2:vcc)
Ignoring empty pin current: Ix(u3:vcc)
Ignoring empty pin current: Ix(u4:vcc)
Ignoring empty pin current: Ix(u5:vcc)
Ignoring empty pin current: Ix(u1:vcc)
Ignoring empty pin current: Ix(u2:vcc)
Ignoring empty pin current: Ix(u3:vcc)
Ignoring empty pin current: Ix(u4:vcc)
Ignoring empty pin current: Ix(u5:vcc)

Date: Tue Sep 08 09:25:38 2020
Total elapsed time: 0.193 seconds.

tnom = 27
temp = 27
method = modified trap
totiter = 6162
traniter = 6147
tranpoints = 2855
accept = 2560
rejected = 295
matrix size = 156
fillins = 0
solver = Normal
Thread vector: 7.9/4.5[6] 5.9/2.6[6] 4.2/2.1[6] 0.3/1.7[1]  2592/500
Matrix Compiler1: 3.74 KB object code size  2.1/1.6/[0.4]
Matrix Compiler2: 7.46 KB object code size  1.7/3.0/[0.5]

