Circuit: * C:\Users\SWARUP\Desktop\2ND YEAR\2-1\DIGITAL DESIGN\DD LABS\DIGITAL DESIGN LAB SOLUTIONS\lab 3\Draft2.asc

WARNING: Less than two connections to node NC_01.  This node is used by R:U1:OUT1:OUT.
WARNING: Less than two connections to node NC_02.  This node is used by R:U1:OUT2:OUT.
WARNING: Less than two connections to node NC_03.  This node is used by R:U1:OUT3:OUT.
WARNING: Less than two connections to node NC_04.  This node is used by R:U1:OUT4:OUT.
WARNING: Less than two connections to node NC_05.  This node is used by R:U1:OUT5:OUT.
WARNING: Less than two connections to node NC_06.  This node is used by R:U1:OUT6:OUT.
WARNING: Less than two connections to node NC_07.  This node is used by R:U1:OUT7:OUT.
WARNING: Less than two connections to node NC_08.  This node is used by R:U1:OUT8:OUT.
Direct Newton iteration for .op point succeeded.
Ignoring empty pin current: Ix(u1:vcc)
Ignoring empty pin current: Ix(u1:vcc)

Date: Sat Oct 10 19:27:50 2020
Total elapsed time: 0.098 seconds.

tnom = 27
temp = 27
method = modified trap
totiter = 4178
traniter = 4169
tranpoints = 1999
accept = 1839
rejected = 160
matrix size = 78
fillins = 0
solver = Normal
Thread vector: 3.1/2.5[2] 0.9/1.5[1] 0.6/1.1[1] 0.2/0.9[1]  2592/500
Matrix Compiler1: 1.97 KB object code size  0.4/0.2/[0.1]
Matrix Compiler2: 3.76 KB object code size  0.2/0.5/[0.2]

