Circuit: * C:\Users\SWARUP\Desktop\2ND YEAR\2-1\DIGITAL DESIGN\DD LABS\DIGITAL DESIGN LAB SOLUTIONS\lab 3\parallel adder.asc

WARNING: Less than two connections to node S1.  This node is used by R:U1:OUT1:OUT.
WARNING: Less than two connections to node S2.  This node is used by R:U1:OUT2:OUT.
WARNING: Less than two connections to node S3.  This node is used by R:U1:OUT3:OUT.
WARNING: Less than two connections to node S4.  This node is used by R:U1:OUT4:OUT.
WARNING: Less than two connections to node CARRY.  This node is used by R:U1:OUT5:OUT.
WARNING: Less than two connections to node B.  This node is used by V6.
Direct Newton iteration for .op point succeeded.
Ignoring empty pin current: Ix(u1:vcc)
Ignoring empty pin current: Ix(u1:vcc)

Date: Tue Sep 08 09:56:43 2020
Total elapsed time: 0.172 seconds.

tnom = 27
temp = 27
method = modified trap
totiter = 6154
traniter = 6143
tranpoints = 2863
accept = 2562
rejected = 301
matrix size = 102
fillins = 0
solver = Normal
Thread vector: 4.1/2.6[4] 1.2/3.5[1] 0.9/2.6[1] 0.1/1.0[1]  2592/500
Matrix Compiler1: 2.26 KB object code size  0.4/0.3/[0.1]
Matrix Compiler2: 4.73 KB object code size  0.3/0.7/[0.3]

