Circuit: * C:\Users\SWARUP\Desktop\2ND YEAR\2-1\DIGITAL DESIGN\DD LABS\DIGITAL DESIGN LAB SOLUTIONS\lab 2\Draft3.asc

WARNING: Less than two connections to node COUT1.  This node is used by R:U1:OUT:OUT.
WARNING: Less than two connections to node SUM1.  This node is used by R:U7:OUT:OUT.
Direct Newton iteration for .op point succeeded.
Ignoring empty pin current: Ix(u1:vcc)
Ignoring empty pin current: Ix(u2:vcc)
Ignoring empty pin current: Ix(u3:vcc)
Ignoring empty pin current: Ix(u4:vcc)
Ignoring empty pin current: Ix(u5:vcc)
Ignoring empty pin current: Ix(u6:vcc)
Ignoring empty pin current: Ix(u7:vcc)
Ignoring empty pin current: Ix(u8:vcc)
Ignoring empty pin current: Ix(u9:vcc)
Ignoring empty pin current: Ix(u1:vcc)
Ignoring empty pin current: Ix(u2:vcc)
Ignoring empty pin current: Ix(u3:vcc)
Ignoring empty pin current: Ix(u4:vcc)
Ignoring empty pin current: Ix(u5:vcc)
Ignoring empty pin current: Ix(u6:vcc)
Ignoring empty pin current: Ix(u7:vcc)
Ignoring empty pin current: Ix(u8:vcc)
Ignoring empty pin current: Ix(u9:vcc)

Date: Mon Aug 31 13:22:22 2020
Total elapsed time: 0.192 seconds.

tnom = 27
temp = 27
method = modified trap
totiter = 5290
traniter = 5278
tranpoints = 2375
accept = 2104
rejected = 271
matrix size = 123
fillins = 4
solver = Normal
Thread vector: 5.7/3.7[3] 1.4/1.7[1] 1.3/1.5[1] 0.2/1.2[1]  2592/500
Matrix Compiler1: 3.38 KB object code size  0.6/0.4/[0.2]
Matrix Compiler2: 6.42 KB object code size  0.4/0.8/[0.3]

