Circuit: * C:\Users\SWARUP\Desktop\2ND YEAR\2-1\DIGITAL DESIGN\DD LABS\DIGITAL DESIGN LAB SOLUTIONS\lab 2\Draft4.asc

WARNING: Less than two connections to node S1.  This node is used by R:U1:OUT1:OUT.
WARNING: Less than two connections to node S2.  This node is used by R:U1:OUT2:OUT.
WARNING: Less than two connections to node S3.  This node is used by R:U1:OUT3:OUT.
WARNING: Less than two connections to node S4.  This node is used by R:U1:OUT4:OUT.
WARNING: Less than two connections to node CARRY.  This node is used by R:U1:OUT5:OUT.
Direct Newton iteration for .op point succeeded.
Ignoring empty pin current: Ix(u1:vcc)
Ignoring empty pin current: Ix(u2:vcc)
Ignoring empty pin current: Ix(u3:vcc)
Ignoring empty pin current: Ix(u4:vcc)
Ignoring empty pin current: Ix(u5:vcc)
Ignoring empty pin current: Ix(u1:vcc)
Ignoring empty pin current: Ix(u2:vcc)
Ignoring empty pin current: Ix(u3:vcc)
Ignoring empty pin current: Ix(u4:vcc)
Ignoring empty pin current: Ix(u5:vcc)

Date: Mon Aug 31 14:04:11 2020
Total elapsed time: 0.315 seconds.

tnom = 27
temp = 27
method = modified trap
totiter = 6070
traniter = 6055
tranpoints = 2803
accept = 2529
rejected = 274
matrix size = 156
fillins = 4
solver = Normal
Thread vector: 9.0/5.0[6] 5.1/2.6[6] 4.0/2.5[5] 0.3/1.5[1]  2592/500
Matrix Compiler1: 3.86 KB object code size  2.1/1.6/[0.4]
Matrix Compiler2: 7.58 KB object code size  1.7/3.0/[0.4]

