Circuit: * C:\Users\SWARUP\Desktop\2ND YEAR\2-1\DIGITAL DESIGN\DD LABS\DIGITAL DESIGN LAB SOLUTIONS\lab 2\full_adder.asc

WARNING: Less than two connections to node SUM.  This node is used by R:U4:OUT:OUT.
WARNING: Less than two connections to node SUM_NEW.  This node is used by R:U12:OUT:OUT.
WARNING: Less than two connections to node SUM_NAND.  This node is used by R:U29:OUT:OUT.
WARNING: Less than two connections to node COUT_NAND.  This node is used by R:U34:OUT:OUT.
WARNING: Less than two connections to node COUT.  This node is used by R:U39:OUT:OUT.
WARNING: Less than two connections to node COUT_NEW.  This node is used by R:U40:OUT:OUT.
Direct Newton iteration for .op point succeeded.
Ignoring empty pin current: Ix(u1:vcc)
Ignoring empty pin current: Ix(u4:vcc)
Ignoring empty pin current: Ix(u2:vcc)
Ignoring empty pin current: Ix(u3:vcc)
Ignoring empty pin current: Ix(u6:vcc)
Ignoring empty pin current: Ix(u8:vcc)
Ignoring empty pin current: Ix(u9:vcc)
Ignoring empty pin current: Ix(u10:vcc)
Ignoring empty pin current: Ix(u11:vcc)
Ignoring empty pin current: Ix(u12:vcc)
Ignoring empty pin current: Ix(u13:vcc)
Ignoring empty pin current: Ix(u14:vcc)
Ignoring empty pin current: Ix(u15:vcc)
Ignoring empty pin current: Ix(u16:vcc)
Ignoring empty pin current: Ix(u17:vcc)
Ignoring empty pin current: Ix(u18:vcc)
Ignoring empty pin current: Ix(u19:vcc)
Ignoring empty pin current: Ix(u20:vcc)
Ignoring empty pin current: Ix(u21:vcc)
Ignoring empty pin current: Ix(u22:vcc)
Ignoring empty pin current: Ix(u23:vcc)
Ignoring empty pin current: Ix(u24:vcc)
Ignoring empty pin current: Ix(u25:vcc)
Ignoring empty pin current: Ix(u26:vcc)
Ignoring empty pin current: Ix(u27:vcc)
Ignoring empty pin current: Ix(u28:vcc)
Ignoring empty pin current: Ix(u29:vcc)
Ignoring empty pin current: Ix(u30:vcc)
Ignoring empty pin current: Ix(u34:vcc)
Ignoring empty pin current: Ix(u36:vcc)
Ignoring empty pin current: Ix(u37:vcc)
Ignoring empty pin current: Ix(u39:vcc)
Ignoring empty pin current: Ix(u40:vcc)
Ignoring empty pin current: Ix(u1:vcc)
Ignoring empty pin current: Ix(u4:vcc)
Ignoring empty pin current: Ix(u2:vcc)
Ignoring empty pin current: Ix(u3:vcc)
Ignoring empty pin current: Ix(u6:vcc)
Ignoring empty pin current: Ix(u8:vcc)
Ignoring empty pin current: Ix(u9:vcc)
Ignoring empty pin current: Ix(u10:vcc)
Ignoring empty pin current: Ix(u11:vcc)
Ignoring empty pin current: Ix(u12:vcc)
Ignoring empty pin current: Ix(u13:vcc)
Ignoring empty pin current: Ix(u14:vcc)
Ignoring empty pin current: Ix(u15:vcc)
Ignoring empty pin current: Ix(u16:vcc)
Ignoring empty pin current: Ix(u17:vcc)
Ignoring empty pin current: Ix(u18:vcc)
Ignoring empty pin current: Ix(u19:vcc)
Ignoring empty pin current: Ix(u20:vcc)
Ignoring empty pin current: Ix(u21:vcc)
Ignoring empty pin current: Ix(u22:vcc)
Ignoring empty pin current: Ix(u23:vcc)
Ignoring empty pin current: Ix(u24:vcc)
Ignoring empty pin current: Ix(u25:vcc)
Ignoring empty pin current: Ix(u26:vcc)
Ignoring empty pin current: Ix(u27:vcc)
Ignoring empty pin current: Ix(u28:vcc)
Ignoring empty pin current: Ix(u29:vcc)
Ignoring empty pin current: Ix(u30:vcc)
Ignoring empty pin current: Ix(u34:vcc)
Ignoring empty pin current: Ix(u36:vcc)
Ignoring empty pin current: Ix(u37:vcc)
Ignoring empty pin current: Ix(u39:vcc)
Ignoring empty pin current: Ix(u40:vcc)

Date: Tue Sep 01 08:50:02 2020
Total elapsed time: 0.613 seconds.

tnom = 27
temp = 27
method = modified trap
totiter = 7253
traniter = 7227
tranpoints = 3157
accept = 2651
rejected = 506
matrix size = 435
fillins = 23
solver = Normal
Thread vector: 45.1/9.6[8] 16.7/4.8[8] 16.5/8.3[8] 1.1/2.9[1]  2592/500
Matrix Compiler1: 12.00 KB object code size  8.8/5.3/[1.6]
Matrix Compiler2: 23.02 KB object code size  6.6/8.5/[2.7]

