Circuit: * C:\Users\SWARUP\Desktop\DIGITAL DESIGN\lab 2\full_adder_using_NAND.asc

WARNING: Less than two connections to node SUM.  This node is used by R:U4:OUT:OUT.
WARNING: Less than two connections to node COUT.  This node is used by R:U7:OUT:OUT.
Direct Newton iteration for .op point succeeded.
Ignoring empty pin current: Ix(u1:vcc)
Ignoring empty pin current: Ix(u2:vcc)
Ignoring empty pin current: Ix(u3:vcc)
Ignoring empty pin current: Ix(u4:vcc)
Ignoring empty pin current: Ix(u5:vcc)
Ignoring empty pin current: Ix(u6:vcc)
Ignoring empty pin current: Ix(u7:vcc)
Ignoring empty pin current: Ix(u1:vcc)
Ignoring empty pin current: Ix(u2:vcc)
Ignoring empty pin current: Ix(u3:vcc)
Ignoring empty pin current: Ix(u4:vcc)
Ignoring empty pin current: Ix(u5:vcc)
Ignoring empty pin current: Ix(u6:vcc)
Ignoring empty pin current: Ix(u7:vcc)

Date: Sun Aug 23 20:31:46 2020
Total elapsed time: 0.130 seconds.

tnom = 27
temp = 27
method = modified trap
totiter = 4898
traniter = 4883
tranpoints = 2259
accept = 2004
rejected = 255
matrix size = 89
fillins = 4
solver = Normal
Thread vector: 4.1/3.5[2] 1.1/1.8[1] 1.0/1.5[1] 0.2/1.0[1]  2592/500
Matrix Compiler1: 2.42 KB object code size  0.4/0.3/[0.2]
Matrix Compiler2: 4.65 KB object code size  0.3/0.6/[0.3]

