Circuit: * C:\Users\SWARUP\Desktop\2ND YEAR\2-1\DIGITAL DESIGN\DD LABS\DIGITAL DESIGN LAB SOLUTIONS\lab 2\GRAY_CODE.asc

WARNING: Less than two connections to node G2.  This node is used by R:U1:OUT:OUT.
WARNING: Less than two connections to node G1.  This node is used by R:U2:OUT:OUT.
WARNING: Less than two connections to node G0.  This node is used by R:U3:OUT:OUT.
Direct Newton iteration for .op point succeeded.
Ignoring empty pin current: Ix(u1:vcc)
Ignoring empty pin current: Ix(u2:vcc)
Ignoring empty pin current: Ix(u3:vcc)
Ignoring empty pin current: Ix(u1:vcc)
Ignoring empty pin current: Ix(u2:vcc)
Ignoring empty pin current: Ix(u3:vcc)

Date: Tue Sep 01 07:54:37 2020
Total elapsed time: 0.149 seconds.

tnom = 27
temp = 27
method = modified trap
totiter = 5897
traniter = 5892
tranpoints = 2722
accept = 2474
rejected = 248
matrix size = 47
fillins = 0
solver = Normal
Matrix Compiler1: 1.23 KB object code size  0.3/0.2/[0.1]
Matrix Compiler2: 2.38 KB object code size  0.2/0.4/[0.1]

