Circuit: * C:\Users\SWARUP\Desktop\2ND YEAR\2-1\DIGITAL DESIGN\DD LABS\DIGITAL DESIGN LAB SOLUTIONS\lab 2\half_adder.asc

WARNING: Less than two connections to node SUM_NEW.  This node is used by R:U1:OUT:OUT.
WARNING: Less than two connections to node COUT_NEW.  This node is used by R:U3:OUT:OUT.
WARNING: Less than two connections to node COUT1.  This node is used by R:U6:OUT:OUT.
WARNING: Less than two connections to node SUM1.  This node is used by R:U4:OUT:OUT.
WARNING: Less than two connections to node SUM2.  This node is used by R:U11:OUT:OUT.
WARNING: Less than two connections to node COUT2.  This node is used by R:U17:OUT:OUT.
WARNING: Less than two connections to node SUM.  This node is used by R:U10:OUT:OUT.
WARNING: Less than two connections to node COUT.  This node is used by R:U20:OUT:OUT.
Direct Newton iteration for .op point succeeded.
Ignoring empty pin current: Ix(u1:vcc)
Ignoring empty pin current: Ix(u2:vcc)
Ignoring empty pin current: Ix(u3:vcc)
Ignoring empty pin current: Ix(u5:vcc)
Ignoring empty pin current: Ix(u6:vcc)
Ignoring empty pin current: Ix(u4:vcc)
Ignoring empty pin current: Ix(u7:vcc)
Ignoring empty pin current: Ix(u8:vcc)
Ignoring empty pin current: Ix(u9:vcc)
Ignoring empty pin current: Ix(u13:vcc)
Ignoring empty pin current: Ix(u14:vcc)
Ignoring empty pin current: Ix(u12:vcc)
Ignoring empty pin current: Ix(u15:vcc)
Ignoring empty pin current: Ix(u16:vcc)
Ignoring empty pin current: Ix(u11:vcc)
Ignoring empty pin current: Ix(u17:vcc)
Ignoring empty pin current: Ix(u10:vcc)
Ignoring empty pin current: Ix(u20:vcc)
Ignoring empty pin current: Ix(u1:vcc)
Ignoring empty pin current: Ix(u2:vcc)
Ignoring empty pin current: Ix(u3:vcc)
Ignoring empty pin current: Ix(u5:vcc)
Ignoring empty pin current: Ix(u6:vcc)
Ignoring empty pin current: Ix(u4:vcc)
Ignoring empty pin current: Ix(u7:vcc)
Ignoring empty pin current: Ix(u8:vcc)
Ignoring empty pin current: Ix(u9:vcc)
Ignoring empty pin current: Ix(u13:vcc)
Ignoring empty pin current: Ix(u14:vcc)
Ignoring empty pin current: Ix(u12:vcc)
Ignoring empty pin current: Ix(u15:vcc)
Ignoring empty pin current: Ix(u16:vcc)
Ignoring empty pin current: Ix(u11:vcc)
Ignoring empty pin current: Ix(u17:vcc)
Ignoring empty pin current: Ix(u10:vcc)
Ignoring empty pin current: Ix(u20:vcc)

Date: Tue Sep 01 07:46:30 2020
Total elapsed time: 0.515 seconds.

tnom = 27
temp = 27
method = modified trap
totiter = 3505
traniter = 3490
tranpoints = 1627
accept = 1499
rejected = 128
matrix size = 230
fillins = 10
solver = Normal
Thread vector: 49.5/25.5[7] 19.8/11.2[7] 18.6/8.9[7] 1.7/17.7[1]  2592/500
Matrix Compiler1: 6.47 KB object code size  5.2/3.4/[2.6]
Matrix Compiler2: 12.02 KB object code size  4.3/11.9/[2.3]

