Circuit: * C:\Users\SWARUP\Desktop\2ND YEAR\2-1\DIGITAL DESIGN\DD LABS\DIGITAL DESIGN LAB SOLUTIONS\lab 2\parity_checker.asc

WARNING: Less than two connections to node FE.  This node is used by R:U3:OUT:OUT.
WARNING: Less than two connections to node FO.  This node is used by R:U6:OUT:OUT.
Direct Newton iteration for .op point succeeded.
Ignoring empty pin current: Ix(u1:vcc)
Ignoring empty pin current: Ix(u2:vcc)
Ignoring empty pin current: Ix(u3:vcc)
Ignoring empty pin current: Ix(u4:vcc)
Ignoring empty pin current: Ix(u5:vcc)
Ignoring empty pin current: Ix(u6:vcc)
Ignoring empty pin current: Ix(u1:vcc)
Ignoring empty pin current: Ix(u2:vcc)
Ignoring empty pin current: Ix(u3:vcc)
Ignoring empty pin current: Ix(u4:vcc)
Ignoring empty pin current: Ix(u5:vcc)
Ignoring empty pin current: Ix(u6:vcc)

Date: Mon Aug 31 08:10:41 2020
Total elapsed time: 0.219 seconds.

tnom = 27
temp = 27
method = modified trap
totiter = 4539
traniter = 4527
tranpoints = 2082
accept = 1878
rejected = 204
matrix size = 88
fillins = 1
solver = Normal
Thread vector: 5.9/4.2[2] 1.4/1.8[1] 1.3/1.6[1] 0.2/1.3[1]  2592/500
Matrix Compiler1: 2.41 KB object code size  0.6/0.4/[0.2]
Matrix Compiler2: 4.50 KB object code size  0.5/0.8/[0.3]

