Circuit: * C:\Users\SWARUP\Desktop\2ND YEAR\2-1\DIGITAL DESIGN\DD LABS\DIGITAL DESIGN LAB SOLUTIONS\lab 8\lab 8.asc

WARNING: Less than two connections to node U1:DP.  This node is used by A:U1:DDEL.
WARNING: Less than two connections to node U2:DP.  This node is used by A:U2:DDEL.
WARNING: Less than two connections to node ABAR_D.  This node is used by R:U2:OUT2:OUT.
Direct Newton iteration for .op point succeeded.
Ignoring empty pin current: Ix(u1:vcc)
Ignoring empty pin current: Ix(u2:vcc)
Ignoring empty pin current: Ix(u4:vcc)
Ignoring empty pin current: Ix(u5:vcc)
Ignoring empty pin current: Ix(u3:vcc)
Ignoring empty pin current: Ix(u1:vcc)
Ignoring empty pin current: Ix(u2:vcc)
Ignoring empty pin current: Ix(u4:vcc)
Ignoring empty pin current: Ix(u5:vcc)
Ignoring empty pin current: Ix(u3:vcc)

Date: Wed Oct 28 08:05:42 2020
Total elapsed time: 0.222 seconds.

tnom = 27
temp = 27
method = modified trap
totiter = 4731
traniter = 4723
tranpoints = 2163
accept = 1932
rejected = 231
matrix size = 147
fillins = 1
solver = Normal
Thread vector: 6.4/4.3[5] 4.5/2.3[5] 3.5/2.2[5] 0.2/1.4[1]  2592/500
Matrix Compiler1: 3.67 KB object code size  2.1/1.3/[0.3]
Matrix Compiler2: 7.28 KB object code size  1.5/2.7/[0.3]

